 Abaqus/Standard 6.14-1                  DATE 09-1ÔÂ-2023 TIME 14:09:39
 SUMMARY OF JOB INFORMATION:
 STEP  INC ATT SEVERE EQUIL TOTAL  TOTAL      STEP       INC OF       DOF    IF
               DISCON ITERS ITERS  TIME/    TIME/LPF    TIME/LPF    MONITOR RIKS
               ITERS               FREQ
   1     1   1     0     1     1  0.0100     0.0100     0.01000   
   1     2   1     0     1     1  0.0200     0.0200     0.01000   
   1     3   1     0     1     1  0.0350     0.0350     0.01500   
   1     4   1     0     1     1  0.0575     0.0575     0.02250   
   1     5   1     0     1     1  0.0912     0.0912     0.03375   
   1     6   1     0     1     1  0.142      0.142      0.05063   
   1     7   1     0     1     1  0.218      0.218      0.07594   
   1     8   1     0     1     1  0.332      0.332      0.1139    
   1     9   1     0     1     1  0.503      0.503      0.1709    
   1    10   1     0     1     1  0.759      0.759      0.2563    
   1    11   1     0     1     1  1.00       1.00       0.2411    
                          
 THE ANALYSIS HAS COMPLETED SUCCESSFULLY
